%nprocs=16
%mem=16GB
%chk=LNR.chk
# opt HF/6-31g* Pop=MK iop(6/33=2)

title

1 1
C        103.09000      121.45900      120.05500
C        103.89100      120.32700      120.08400
C        105.84300      121.69000      120.19900
C        107.11300      119.20000      119.01100
C        103.67400      122.70600      120.09600
C        105.05800      122.82600      120.17300
C        105.26600      120.43500      120.15500
C        106.14700      119.20300      120.19200
N        108.02600      118.06000      119.06600
O        102.91200      123.83000      120.06800
O        105.61700      124.07700      120.21700
O        105.37200      118.02800      120.16200
H        102.01600      121.35930      120.00060
H        103.44070      119.34590      120.05100
H        106.91800      121.77760      120.25420
H        107.68830      120.12580      119.01070
H        106.54740      119.16710      118.07980
H        106.72560      119.21560      121.11570
H        108.64950      118.08880      118.27200
H        108.56550      118.10100      119.91880
H        107.49470      117.20130      119.04520
H        103.47990      124.60320      120.10380
H        104.92270      124.73940      120.18980
H        104.76290      118.02680      120.90410


